LAMMPS (29 Sep 2021)
# bulk water

units           metal
boundary        p p p
atom_style      atomic

neighbor        2.0 bin
neigh_modify    every 10 delay 0 check no

read_data	copper.lmp
Reading data file ...
  orthogonal box = (0.0000000 0.0000000 0.0000000) to (10.902600 10.902600 10.902600)
  reading atoms ...
  108 atoms
  reading velocities ...
  108 velocities
group       Cu  type 1
108 atoms in group Cu

mass 		1 63.546

# pair_style deepmd fathergraph.pb graph.pb out_file graph.out out_freq 10 atomic relative 1.0
pair_style  deepmd CuSingleTanh.pb
pair_coeff * * Cu

velocity        all create 330.0 23456789

fix             1 all nvt temp 330.0 330.0 0.5
timestep        0.0005
thermo_style    custom step pe ke etotal temp press vol
thermo          100
dump		1 all custom 100 Cu.dump id type x y z

compute rdf all rdf 100 1 1
fix 2 all ave/time 100 1 100 c_rdf[*] file CuTanh_cu.rdf mode vector

run             100000

CITE-CITE-CITE-CITE-CITE-CITE-CITE-CITE-CITE-CITE-CITE-CITE-CITE

Your simulation uses code contributions which should be cited:

- USER-DEEPMD package:

@article{Wang_ComputPhysCommun_2018_v228_p178,
  author = {Wang, Han and Zhang, Linfeng and Han, Jiequn and E, Weinan},
  doi = {10.1016/j.cpc.2018.03.016},
  url = {https://doi.org/10.1016/j.cpc.2018.03.016},
  year = 2018,
  month = {jul},
  publisher = {Elsevier {BV}},
  volume = 228,
  journal = {Comput. Phys. Commun.},
  title = {{DeePMD-kit: A deep learning package for many-body potential energy representation and molecular dynamics}},
  pages = {178--184}
}

CITE-CITE-CITE-CITE-CITE-CITE-CITE-CITE-CITE-CITE-CITE-CITE-CITE

  update every 10 steps, delay 0 steps, check no
Step PotEng KinEng TotEng Temp Press Volume
0   -398.16768    4.5641757   -393.60351          330    24613.069    1295.9559
Averages over the last 501 of 1001 rows, steps 50000 to 100000:
PotEng KinEng TotEng Temp Press Volume
-398.067 4.60116 -393.466 332.674 25283 1295.96
Loop time of 1667.57 on 1 procs for 100000 steps with 108 atoms
